data/IEEE Systems/30/IEEE 30 bus.EPC
title
 08/20/93 UW ARCHIVE           100.0  1961 W IEEE 30 Bus Test Case
!
comments
!
solution parameters
tap    1    tcul  enabled/disabled
phas   1    ps    enabled/disabled
area   1    area  enabled/disabled
svd    1    svd   enabled/disabled
dctap  1    dc    enabled/disabled
gcd    1    gcd   enabled/disabled
jump  0.000290    jumper threshold
toler   0.1000    newton tolerance
sbase 100.0000    system mva base
!
bus data  [30]               ty  vsched   volt     angle    ar zone  vmax   vmin   date_in date_out pid L own st  latitude  longitude island    sdmon   vmax1      vmin1      dvmax
      1 "Glen Lyn    " 132.0000 :  0 1.06000 1.060000  98.43159   1    1 1.1000 0.9000   400101   391231   0 0   1 0    0.00000    0.00000 0    0.00000    0.00000    0.00000
      2 "Claytor     " 132.0000 :  2 1.04500 1.043134  93.07980   1    1 1.1000 0.9000   400101   391231   0 0   1 0    0.00000    0.00000 0    0.00000    0.00000    0.00000
      3 "Kumis       " 132.0000 :  1 1.020742 1.020742  90.89962   1    1 1.1000 0.9000   400101   391231   0 0   1 0    0.00000    0.00000 0    0.00000    0.00000    0.00000
      4 "Hancock     " 132.0000 :  1 1.011765 1.011765  89.14751   1    1 1.1000 0.9000   400101   391231   0 0   1 0    0.00000    0.00000 0    0.00000    0.00000    0.00000
      5 "Fieldale    " 132.0000 :  2 1.01000 1.010000  84.26584   1    1 1.1000 0.9000   400101   391231   0 0   1 0    0.00000    0.00000 0    0.00000    0.00000    0.00000
      6 "Roanoke     " 132.0000 :  1 1.010257 1.010257  87.36700   1    1 1.1000 0.9000   400101   391231   0 0   1 0    0.00000    0.00000 0    0.00000    0.00000    0.00000
      7 "Blaine      " 132.0000 :  1 1.002377 1.002377  85.56649   1    1 1.1000 0.9000   400101   391231   0 0   1 0    0.00000    0.00000 0    0.00000    0.00000    0.00000
      8 "Reusens     " 132.0000 :  2 1.01000 1.010000  86.61831   1    1 1.1000 0.9000   400101   391231   0 0   1 0    0.00000    0.00000 0    0.00000    0.00000    0.00000
      9 "Roanoke     "   1.0000 :  1 1.050912 1.050912  84.32269   1    1 1.1000 0.9000   400101   391231   0 0   1 0    0.00000    0.00000 0    0.00000    0.00000    0.00000
     10 "Roanoke     "  33.0000 :  1 1.045127 1.045127  82.73196   1    1 1.1000 0.9000   400101   391231   0 0   1 0    0.00000    0.00000 0    0.00000    0.00000    0.00000
     11 "Roanoke     "  11.0000 :  2 1.08200 1.082000  84.32269   1    1 1.1000 0.9000   400101   391231   0 0   1 0    0.00000    0.00000 0    0.00000    0.00000    0.00000
     12 "Hancock     "  33.0000 :  1 1.057120 1.057120  83.48831   1    1 1.1000 0.9000   400101   391231   0 0   1 0    0.00000    0.00000 0    0.00000    0.00000    0.00000
     13 "Hancock     "  11.0000 :  2 1.07100 1.071000  83.48831   1    1 1.1000 0.9000   400101   391231   0 0   1 0    0.00000    0.00000 0    0.00000    0.00000    0.00000
     14 "Bus 14      "  33.0000 :  1 1.042281 1.042281  82.59617   1    1 1.1000 0.9000   400101   391231   0 0   1 0    0.00000    0.00000 0    0.00000    0.00000    0.00000
     15 "Bus 15      "  33.0000 :  1 1.037683 1.037683  82.50423   1    1 1.1000 0.9000   400101   391231   0 0   1 0    0.00000    0.00000 0    0.00000    0.00000    0.00000
     16 "Bus 16      "  33.0000 :  1 1.044390 1.044390  82.90528   1    1 1.1000 0.9000   400101   391231   0 0   1 0    0.00000    0.00000 0    0.00000    0.00000    0.00000
     17 "Bus 17      "  33.0000 :  1 1.039903 1.039903  82.57024   1    1 1.1000 0.9000   400101   391231   0 0   1 0    0.00000    0.00000 0    0.00000    0.00000    0.00000
     18 "Bus 18      "  33.0000 :  1 1.028154 1.028154  81.88992   1    1 1.1000 0.9000   400101   391231   0 0   1 0    0.00000    0.00000 0    0.00000    0.00000    0.00000
     19 "Bus 19      "  33.0000 :  1 1.025652 1.025652  81.71619   1    1 1.1000 0.9000   400101   391231   0 0   1 0    0.00000    0.00000 0    0.00000    0.00000    0.00000
     20 "Bus 20      "  33.0000 :  1 1.029738 1.029738  81.91275   1    1 1.1000 0.9000   400101   391231   0 0   1 0    0.00000    0.00000 0    0.00000    0.00000    0.00000
     21 "Bus 21      "  33.0000 :  1 1.032727 1.032727  82.28925   1    1 1.1000 0.9000   400101   391231   0 0   1 0    0.00000    0.00000 0    0.00000    0.00000    0.00000
     22 "Bus 22      "  33.0000 :  1 1.033258 1.033258  82.30349   1    1 1.1000 0.9000   400101   391231   0 0   1 0    0.00000    0.00000 0    0.00000    0.00000    0.00000
     23 "Bus 23      "  33.0000 :  1 1.027182 1.027182  82.11355   1    1 1.1000 0.9000   400101   391231   0 0   1 0    0.00000    0.00000 0    0.00000    0.00000    0.00000
     24 "Bus 24      "  33.0000 :  1 1.021584 1.021584  81.93697   1    1 1.1000 0.9000   400101   391231   0 0   1 0    0.00000    0.00000 0    0.00000    0.00000    0.00000
     25 "Bus 25      "  33.0000 :  1 1.017338 1.017338  82.36484   1    1 1.1000 0.9000   400101   391231   0 0   1 0    0.00000    0.00000 0    0.00000    0.00000    0.00000
     26 "Bus 26      "  33.0000 :  1 0.999661 0.999661  81.94518   1    1 1.1000 0.9000   400101   391231   0 0   1 0    0.00000    0.00000 0    0.00000    0.00000    0.00000
     27 "Cloverdl    "  33.0000 :  1 1.023249 1.023249  82.88922   1    1 1.1000 0.9000   400101   391231   0 0   1 0    0.00000    0.00000 0    0.00000    0.00000    0.00000
     28 "Cloverdl    " 132.0000 :  1 1.006817 1.006817  86.74321   1    1 1.1000 0.9000   400101   391231   0 0   1 0    0.00000    0.00000 0    0.00000    0.00000    0.00000
     29 "Bus 29      "  33.0000 :  1 1.003410 1.003410  81.65928   1    1 1.1000 0.9000   400101   391231   0 0   1 0    0.00000    0.00000 0    0.00000    0.00000    0.00000
     30 "Bus 30      "  33.0000 :  1 0.991936 0.991936  80.77646   1    1 1.1000 0.9000   400101   391231   0 0   1 0    0.00000    0.00000 0    0.00000    0.00000    0.00000
branch data  [   37]                                          ck  se  ------------long_id_------------    st resist   react   charge   rate1  rate2  rate3  rate4 aloss  lngth 
      1 "Glen Lyn    " 132.00       2 "Claytor     " 132.00  "1 "  1 "                                " :  1  0.019200  0.057500  0.052800  130.0    0.0    0.0    0.0 0.000    1.0 /
   1    1  0.000000  0.000000  1.000000   400101   391231   0 1  0    0.0    0.0    0.0    0.0   1 1.000   0 0.000   0 0.000   0 0.000   0 0.000   0 0.000   0 0.000   0 0.000  0 0 
      1 "Glen Lyn    " 132.00       3 "Kumis       " 132.00  "1 "  1 "                                " :  1  0.045200  0.165200  0.040800  130.0    0.0    0.0    0.0 0.000    1.0 /
   1    1  0.000000  0.000000  1.000000   400101   391231   0 1  0    0.0    0.0    0.0    0.0   1 1.000   0 0.000   0 0.000   0 0.000   0 0.000   0 0.000   0 0.000   0 0.000  0 0 
      2 "Claytor     " 132.00       4 "Hancock     " 132.00  "1 "  1 "                                " :  1  0.057000  0.173700  0.036800   65.0    0.0    0.0    0.0 0.000    1.0 /
   1    1  0.000000  0.000000  1.000000   400101   391231   0 1  0    0.0    0.0    0.0    0.0   1 1.000   0 0.000   0 0.000   0 0.000   0 0.000   0 0.000   0 0.000   0 0.000  0 0 
      2 "Claytor     " 132.00       5 "Fieldale    " 132.00  "1 "  1 "                                " :  1  0.047200  0.198300  0.041800  130.0    0.0    0.0    0.0 0.000    1.0 /
   1    1  0.000000  0.000000  1.000000   400101   391231   0 1  0    0.0    0.0    0.0    0.0   1 1.000   0 0.000   0 0.000   0 0.000   0 0.000   0 0.000   0 0.000   0 0.000  0 0 
      2 "Claytor     " 132.00       6 "Roanoke     " 132.00  "1 "  1 "                                " :  1  0.058100  0.176300  0.037400   65.0    0.0    0.0    0.0 0.000    1.0 /
   1    1  0.000000  0.000000  1.000000   400101   391231   0 1  0    0.0    0.0    0.0    0.0   1 1.000   0 0.000   0 0.000   0 0.000   0 0.000   0 0.000   0 0.000   0 0.000  0 0 
      3 "Kumis       " 132.00       4 "Hancock     " 132.00  "1 "  1 "                                " :  1  0.013200  0.037900  0.008400  130.0    0.0    0.0    0.0 0.000    1.0 /
   1    1  0.000000  0.000000  1.000000   400101   391231   0 1  0    0.0    0.0    0.0    0.0   1 1.000   0 0.000   0 0.000   0 0.000   0 0.000   0 0.000   0 0.000   0 0.000  0 0 
      4 "Hancock     " 132.00       6 "Roanoke     " 132.00  "1 "  1 "                                " :  1  0.011900  0.041400  0.009000   90.0    0.0    0.0    0.0 0.000    1.0 /
   1    1  0.000000  0.000000  1.000000   400101   391231   0 1  0    0.0    0.0    0.0    0.0   1 1.000   0 0.000   0 0.000   0 0.000   0 0.000   0 0.000   0 0.000   0 0.000  0 0 
      5 "Fieldale    " 132.00       7 "Blaine      " 132.00  "1 "  1 "                                " :  1  0.046000  0.116000  0.020400   70.0    0.0    0.0    0.0 0.000    1.0 /
   1    1  0.000000  0.000000  1.000000   400101   391231   0 1  0    0.0    0.0    0.0    0.0   1 1.000   0 0.000   0 0.000   0 0.000   0 0.000   0 0.000   0 0.000   0 0.000  0 0 
      6 "Roanoke     " 132.00       7 "Blaine      " 132.00  "1 "  1 "                                " :  1  0.026700  0.082000  0.017000  130.0    0.0    0.0    0.0 0.000    1.0 /
   1    1  0.000000  0.000000  1.000000   400101   391231   0 1  0    0.0    0.0    0.0    0.0   1 1.000   0 0.000   0 0.000   0 0.000   0 0.000   0 0.000   0 0.000   0 0.000  0 0 
      6 "Roanoke     " 132.00       8 "Reusens     " 132.00  "1 "  1 "                                " :  1  0.012000  0.042000  0.009000   32.0    0.0    0.0    0.0 0.000    1.0 /
   1    1  0.000000  0.000000  1.000000   400101   391231   0 1  0    0.0    0.0    0.0    0.0   1 1.000   0 0.000   0 0.000   0 0.000   0 0.000   0 0.000   0 0.000   0 0.000  0 0 
      6 "Roanoke     " 132.00      28 "Cloverdl    " 132.00  "1 "  1 "                                " :  1  0.016900  0.059900  0.013000    0.0    0.0    0.0    0.0 0.000    1.0 /
   1    1  0.000000  0.000000  1.000000   400101   391231   0 1  0    0.0    0.0    0.0    0.0   1 1.000   0 0.000   0 0.000   0 0.000   0 0.000   0 0.000   0 0.000   0 0.000  0 0 
      8 "Reusens     " 132.00      28 "Cloverdl    " 132.00  "1 "  1 "                                " :  1  0.063600  0.200000  0.042800    0.0    0.0    0.0    0.0 0.000    1.0 /
   1    1  0.000000  0.000000  1.000000   400101   391231   0 1  0    0.0    0.0    0.0    0.0   1 1.000   0 0.000   0 0.000   0 0.000   0 0.000   0 0.000   0 0.000   0 0.000  0 0 
      9 "Roanoke     "   1.00      10 "Roanoke     "  33.00  "1 "  1 "                                " :  1  0.000000  0.110000  0.000000    0.0    0.0    0.0    0.0 0.000    1.0 /
   1    1  0.000000  0.000000  1.000000   400101   391231   0 1  0    0.0    0.0    0.0    0.0   1 1.000   0 0.000   0 0.000   0 0.000   0 0.000   0 0.000   0 0.000   0 0.000  0 0 
      9 "Roanoke     "   1.00      11 "Roanoke     "  11.00  "1 "  1 "                                " :  1  0.000000  0.208000  0.000000   65.0    0.0    0.0    0.0 0.000    1.0 /
   1    1  0.000000  0.000000  1.000000   400101   391231   0 1  0    0.0    0.0    0.0    0.0   1 1.000   0 0.000   0 0.000   0 0.000   0 0.000   0 0.000   0 0.000   0 0.000  0 0 
     10 "Roanoke     "  33.00      17 "Bus 17      "  33.00  "1 "  1 "                                " :  1  0.032400  0.084500  0.000000    0.0    0.0    0.0    0.0 0.000    1.0 /
   1    1  0.000000  0.000000  1.000000   400101   391231   0 1  0    0.0    0.0    0.0    0.0   1 1.000   0 0.000   0 0.000   0 0.000   0 0.000   0 0.000   0 0.000   0 0.000  0 0 
     10 "Roanoke     "  33.00      20 "Bus 20      "  33.00  "1 "  1 "                                " :  1  0.093600  0.209000  0.000000   32.0    0.0    0.0    0.0 0.000    1.0 /
   1    1  0.000000  0.000000  1.000000   400101   391231   0 1  0    0.0    0.0    0.0    0.0   1 1.000   0 0.000   0 0.000   0 0.000   0 0.000   0 0.000   0 0.000   0 0.000  0 0 
     10 "Roanoke     "  33.00      21 "Bus 21      "  33.00  "1 "  1 "                                " :  1  0.034800  0.074900  0.000000    0.0    0.0    0.0    0.0 0.000    1.0 /
   1    1  0.000000  0.000000  1.000000   400101   391231   0 1  0    0.0    0.0    0.0    0.0   1 1.000   0 0.000   0 0.000   0 0.000   0 0.000   0 0.000   0 0.000   0 0.000  0 0 
     10 "Roanoke     "  33.00      22 "Bus 22      "  33.00  "1 "  1 "                                " :  1  0.072700  0.149900  0.000000    0.0    0.0    0.0    0.0 0.000    1.0 /
   1    1  0.000000  0.000000  1.000000   400101   391231   0 1  0    0.0    0.0    0.0    0.0   1 1.000   0 0.000   0 0.000   0 0.000   0 0.000   0 0.000   0 0.000   0 0.000  0 0 
     12 "Hancock     "  33.00      13 "Hancock     "  11.00  "1 "  1 "                                " :  1  0.000000  0.140000  0.000000   65.0    0.0    0.0    0.0 0.000    1.0 /
   1    1  0.000000  0.000000  1.000000   400101   391231   0 1  0    0.0    0.0    0.0    0.0   1 1.000   0 0.000   0 0.000   0 0.000   0 0.000   0 0.000   0 0.000   0 0.000  0 0 
     12 "Hancock     "  33.00      14 "Bus 14      "  33.00  "1 "  1 "                                " :  1  0.123100  0.255900  0.000000    0.0    0.0    0.0    0.0 0.000    1.0 /
   1    1  0.000000  0.000000  1.000000   400101   391231   0 1  0    0.0    0.0    0.0    0.0   1 1.000   0 0.000   0 0.000   0 0.000   0 0.000   0 0.000   0 0.000   0 0.000  0 0 
     12 "Hancock     "  33.00      15 "Bus 15      "  33.00  "1 "  1 "                                " :  1  0.066200  0.130400  0.000000   32.0    0.0    0.0    0.0 0.000    1.0 /
   1    1  0.000000  0.000000  1.000000   400101   391231   0 1  0    0.0    0.0    0.0    0.0   1 1.000   0 0.000   0 0.000   0 0.000   0 0.000   0 0.000   0 0.000   0 0.000  0 0 
     12 "Hancock     "  33.00      16 "Bus 16      "  33.00  "1 "  1 "                                " :  1  0.094500  0.198700  0.000000   16.0    0.0    0.0    0.0 0.000    1.0 /
   1    1  0.000000  0.000000  1.000000   400101   391231   0 1  0    0.0    0.0    0.0    0.0   1 1.000   0 0.000   0 0.000   0 0.000   0 0.000   0 0.000   0 0.000   0 0.000  0 0 
     14 "Bus 14      "  33.00      15 "Bus 15      "  33.00  "1 "  1 "                                " :  1  0.221000  0.199700  0.000000   16.0    0.0    0.0    0.0 0.000    1.0 /
   1    1  0.000000  0.000000  1.000000   400101   391231   0 1  0    0.0    0.0    0.0    0.0   1 1.000   0 0.000   0 0.000   0 0.000   0 0.000   0 0.000   0 0.000   0 0.000  0 0 
     15 "Bus 15      "  33.00      18 "Bus 18      "  33.00  "1 "  1 "                                " :  1  0.107300  0.218500  0.000000   16.0    0.0    0.0    0.0 0.000    1.0 /
   1    1  0.000000  0.000000  1.000000   400101   391231   0 1  0    0.0    0.0    0.0    0.0   1 1.000   0 0.000   0 0.000   0 0.000   0 0.000   0 0.000   0 0.000   0 0.000  0 0 
     15 "Bus 15      "  33.00      23 "Bus 23      "  33.00  "1 "  1 "                                " :  1  0.100000  0.202000  0.000000    0.0    0.0    0.0    0.0 0.000    1.0 /
   1    1  0.000000  0.000000  1.000000   400101   391231   0 1  0    0.0    0.0    0.0    0.0   1 1.000   0 0.000   0 0.000   0 0.000   0 0.000   0 0.000   0 0.000   0 0.000  0 0 
     16 "Bus 16      "  33.00      17 "Bus 17      "  33.00  "1 "  1 "                                " :  1  0.052400  0.192300  0.000000   16.0    0.0    0.0    0.0 0.000    1.0 /
   1    1  0.000000  0.000000  1.000000   400101   391231   0 1  0    0.0    0.0    0.0    0.0   1 1.000   0 0.000   0 0.000   0 0.000   0 0.000   0 0.000   0 0.000   0 0.000  0 0 
     18 "Bus 18      "  33.00      19 "Bus 19      "  33.00  "1 "  1 "                                " :  1  0.063900  0.129200  0.000000   16.0    0.0    0.0    0.0 0.000    1.0 /
   1    1  0.000000  0.000000  1.000000   400101   391231   0 1  0    0.0    0.0    0.0    0.0   1 1.000   0 0.000   0 0.000   0 0.000   0 0.000   0 0.000   0 0.000   0 0.000  0 0 
     19 "Bus 19      "  33.00      20 "Bus 20      "  33.00  "1 "  1 "                                " :  1  0.034000  0.068000  0.000000   16.0    0.0    0.0    0.0 0.000    1.0 /
   1    1  0.000000  0.000000  1.000000   400101   391231   0 1  0    0.0    0.0    0.0    0.0   1 1.000   0 0.000   0 0.000   0 0.000   0 0.000   0 0.000   0 0.000   0 0.000  0 0 
     21 "Bus 21      "  33.00      22 "Bus 22      "  33.00  "1 "  1 "                                " :  1  0.011600  0.023600  0.000000    0.0    0.0    0.0    0.0 0.000    1.0 /
   1    1  0.000000  0.000000  1.000000   400101   391231   0 1  0    0.0    0.0    0.0    0.0   1 1.000   0 0.000   0 0.000   0 0.000   0 0.000   0 0.000   0 0.000   0 0.000  0 0 
     22 "Bus 22      "  33.00      24 "Bus 24      "  33.00  "1 "  1 "                                " :  1  0.115000  0.179000  0.000000    0.0    0.0    0.0    0.0 0.000    1.0 /
   1    1  0.000000  0.000000  1.000000   400101   391231   0 1  0    0.0    0.0    0.0    0.0   1 1.000   0 0.000   0 0.000   0 0.000   0 0.000   0 0.000   0 0.000   0 0.000  0 0 
     23 "Bus 23      "  33.00      24 "Bus 24      "  33.00  "1 "  1 "                                " :  1  0.132000  0.270000  0.000000    0.0    0.0    0.0    0.0 0.000    1.0 /
   1    1  0.000000  0.000000  1.000000   400101   391231   0 1  0    0.0    0.0    0.0    0.0   1 1.000   0 0.000   0 0.000   0 0.000   0 0.000   0 0.000   0 0.000   0 0.000  0 0 
     24 "Bus 24      "  33.00      25 "Bus 25      "  33.00  "1 "  1 "                                " :  1  0.188500  0.329200  0.000000    0.0    0.0    0.0    0.0 0.000    1.0 /
   1    1  0.000000  0.000000  1.000000   400101   391231   0 1  0    0.0    0.0    0.0    0.0   1 1.000   0 0.000   0 0.000   0 0.000   0 0.000   0 0.000   0 0.000   0 0.000  0 0 
     25 "Bus 25      "  33.00      26 "Bus 26      "  33.00  "1 "  1 "                                " :  1  0.254400  0.380000  0.000000    0.0    0.0    0.0    0.0 0.000    1.0 /
   1    1  0.000000  0.000000  1.000000   400101   391231   0 1  0    0.0    0.0    0.0    0.0   1 1.000   0 0.000   0 0.000   0 0.000   0 0.000   0 0.000   0 0.000   0 0.000  0 0 
     25 "Bus 25      "  33.00      27 "Cloverdl    "  33.00  "1 "  1 "                                " :  1  0.109300  0.208700  0.000000    0.0    0.0    0.0    0.0 0.000    1.0 /
   1    1  0.000000  0.000000  1.000000   400101   391231   0 1  0    0.0    0.0    0.0    0.0   1 1.000   0 0.000   0 0.000   0 0.000   0 0.000   0 0.000   0 0.000   0 0.000  0 0 
     27 "Cloverdl    "  33.00      29 "Bus 29      "  33.00  "1 "  1 "                                " :  1  0.219800  0.415300  0.000000    0.0    0.0    0.0    0.0 0.000    1.0 /
   1    1  0.000000  0.000000  1.000000   400101   391231   0 1  0    0.0    0.0    0.0    0.0   1 1.000   0 0.000   0 0.000   0 0.000   0 0.000   0 0.000   0 0.000   0 0.000  0 0 
     27 "Cloverdl    "  33.00      30 "Bus 30      "  33.00  "1 "  1 "                                " :  1  0.320200  0.602700  0.000000    0.0    0.0    0.0    0.0 0.000    1.0 /
   1    1  0.000000  0.000000  1.000000   400101   391231   0 1  0    0.0    0.0    0.0    0.0   1 1.000   0 0.000   0 0.000   0 0.000   0 0.000   0 0.000   0 0.000   0 0.000  0 0 
     29 "Bus 29      "  33.00      30 "Bus 30      "  33.00  "1 "  1 "                                " :  1  0.239900  0.453300  0.000000    0.0    0.0    0.0    0.0 0.000    1.0 /
   1    1  0.000000  0.000000  1.000000   400101   391231   0 1  0    0.0    0.0    0.0    0.0   1 1.000   0 0.000   0 0.000   0 0.000   0 0.000   0 0.000   0 0.000   0 0.000  0 0 
transformer data  [   4]                                     ck   ------------long_id_------------     st ty --no---    reg_name          zt         int                              tert                   ar zone  tbase   ps_r    ps_x    pt_r    pt_x    ts_r    ts_x
      4 "Hancock     " 132.00      12 "Hancock     "  33.00  "1 " "                                " :  1  1       0 "            "   0.00  0       0 "            "   0.00       0 "            "   0.00    1    1 100.000000 0.000000E+000 2.560000E-001 0.000000E+000 0.000000E+000 0.000000E+000 0.000000E+000 /
 132.000000 33.000000  0.000000  0.000000 0.000000E+000 0.000000E+000   65.0    0.0    0.0    0.0 0.000  1.500000  0.510000  1.500000  0.510000 -0.006250  0.932000  1.000000  1.000000  1.000000   400101   391231   0 1     0.0    0.0    0.0    0.0 /
   1 1.000   0 0.000   0 0.000   0 0.000   0 0.000   0 0.000   0 0.000   0 0.000  0 /
   0.000000   0.000000  0.000000  0.000000     0.0    0.0    0.0     0.0    0.0    0.0 0.000 0.000  0  0  0 0.0000 0.0000 0 
      6 "Roanoke     " 132.00       9 "Roanoke     "   1.00  "1 " "                                " :  1  1       0 "            "   0.00  0       0 "            "   0.00       0 "            "   0.00    1    1 100.000000 0.000000E+000 2.080000E-001 0.000000E+000 0.000000E+000 0.000000E+000 0.000000E+000 /
 132.000000  1.000000  0.000000  0.000000 0.000000E+000 0.000000E+000   65.0    0.0    0.0    0.0 0.000  1.500000  0.510000  1.500000  0.510000 -0.006250  0.978000  1.000000  1.000000  1.000000   400101   391231   0 1     0.0    0.0    0.0    0.0 /
   1 1.000   0 0.000   0 0.000   0 0.000   0 0.000   0 0.000   0 0.000   0 0.000  0 /
   0.000000   0.000000  0.000000  0.000000     0.0    0.0    0.0     0.0    0.0    0.0 0.000 0.000  0  0  0 0.0000 0.0000 0 
      6 "Roanoke     " 132.00      10 "Roanoke     "  33.00  "1 " "                                " :  1  1       0 "            "   0.00  0       0 "            "   0.00       0 "            "   0.00    1    1 100.000000 0.000000E+000 5.560000E-001 0.000000E+000 0.000000E+000 0.000000E+000 0.000000E+000 /
 132.000000 33.000000  0.000000  0.000000 0.000000E+000 0.000000E+000   32.0    0.0    0.0    0.0 0.000  1.500000  0.510000  1.500000  0.510000 -0.006250  0.969000  1.000000  1.000000  1.000000   400101   391231   0 1     0.0    0.0    0.0    0.0 /
   1 1.000   0 0.000   0 0.000   0 0.000   0 0.000   0 0.000   0 0.000   0 0.000  0 /
   0.000000   0.000000  0.000000  0.000000     0.0    0.0    0.0     0.0    0.0    0.0 0.000 0.000  0  0  0 0.0000 0.0000 0 
     28 "Cloverdl    " 132.00      27 "Cloverdl    "  33.00  "1 " "                                " :  1  1       0 "            "   0.00  0       0 "            "   0.00       0 "            "   0.00    1    1 100.000000 0.000000E+000 3.960000E-001 0.000000E+000 0.000000E+000 0.000000E+000 0.000000E+000 /
 132.000000 33.000000  0.000000  0.000000 0.000000E+000 0.000000E+000    0.0    0.0    0.0    0.0 0.000  1.500000  0.510000  1.500000  0.510000 -0.006250  0.968000  1.000000  1.000000  1.000000   400101   391231   0 1     0.0    0.0    0.0    0.0 /
   1 1.000   0 0.000   0 0.000   0 0.000   0 0.000   0 0.000   0 0.000   0 0.000  0 /
   0.000000   0.000000  0.000000  0.000000     0.0    0.0    0.0     0.0    0.0    0.0 0.000 0.000  0  0  0 0.0000 0.0000 0 
generator data  [   6]         id   ------------long_id_------------    st ---no--     reg_name           prf  qrf  ar zone   pgen   pmax   pmin   qgen   qmax   qmin   mbase  cmp_r cmp_x gen_r gen_x           hbus                         tbus                date_in date_out pid N
      1 "Glen Lyn    " 132.00 "1 " "                                " :  1       1 "Glen Lyn    " 132.00  0.000000  1.000000   1    1 260.948277 10000.000000 -10000.000000 -16.787486  0.000000  0.000000 100.0000 0.000 0.000 0.000 1.000      -1 "            "   0.00      -1 "            "   0.00    400101   391231   0 0 /
 0.0000 0.0000 1.0000   1 1.000   0 0.000   0 0.000   0 0.000    0 0.000    0 0.000    0 0.000    0 0.000    0   0   0   0   0   0   0    0.0 0 0  1.000000
      2 "Claytor     " 132.00 "1 " "                                " :  1       2 "Claytor     " 132.00  0.000000  1.000000   1    1  40.000001 10000.000000 -10000.000000 50.000000 50.000000 -40.000001 100.0000 0.000 0.000 0.000 1.000      -1 "            "   0.00      -1 "            "   0.00    400101   391231   0 0 /
 0.0000 0.0000 1.0000   1 1.000   0 0.000   0 0.000   0 0.000    0 0.000    0 0.000    0 0.000    0 0.000    0   0   0   0   0   0   0    0.0 0 0  1.000000
      5 "Fieldale    " 132.00 "1 " "                                " :  1       5 "Fieldale    " 132.00  0.000000  1.000000   1    1   0.000000 10000.000000 -10000.000000 36.849964 40.000001 -40.000001 100.0000 0.000 0.000 0.000 1.000      -1 "            "   0.00      -1 "            "   0.00    400101   391231   0 0 /
 0.0000 0.0000 1.0000   1 1.000   0 0.000   0 0.000   0 0.000    0 0.000    0 0.000    0 0.000    0 0.000    0   0   0   0   0   0   0    0.0 0 0  1.000000
      8 "Reusens     " 132.00 "1 " "                                " :  1       8 "Reusens     " 132.00  0.000000  1.000000   1    1   0.000000 10000.000000 -10000.000000 37.144065 40.000001 -10.000000 100.0000 0.000 0.000 0.000 1.000      -1 "            "   0.00      -1 "            "   0.00    400101   391231   0 0 /
 0.0000 0.0000 1.0000   1 1.000   0 0.000   0 0.000   0 0.000    0 0.000    0 0.000    0 0.000    0 0.000    0   0   0   0   0   0   0    0.0 0 0  1.000000
     11 "Roanoke     "  11.00 "1 " "                                " :  1      11 "Roanoke     "  11.00  0.000000  1.000000   1    1   0.000000 10000.000000 -10000.000000 16.171578 23.999999 -6.000000 100.0000 0.000 0.000 0.000 1.000      -1 "            "   0.00      -1 "            "   0.00    400101   391231   0 0 /
 0.0000 0.0000 1.0000   1 1.000   0 0.000   0 0.000   0 0.000    0 0.000    0 0.000    0 0.000    0 0.000    0   0   0   0   0   0   0    0.0 0 0  1.000000
     13 "Hancock     "  11.00 "1 " "                                " :  1      13 "Hancock     "  11.00  0.000000  1.000000   1    1   0.000000 10000.000000 -10000.000000 10.618506 23.999999 -6.000000 100.0000 0.000 0.000 0.000 1.000      -1 "            "   0.00      -1 "            "   0.00    400101   391231   0 0 /
 0.0000 0.0000 1.0000   1 1.000   0 0.000   0 0.000   0 0.000    0 0.000    0 0.000    0 0.000    0 0.000    0   0   0   0   0   0   0    0.0 0 0  1.000000
load data  [  21]             id   ------------long_id_------------     st      mw      mvar    mw_i    mvar_i  mw_z      mvar_z  ar zone  date_in date_out pid N own M nonc  thr_bus flg
      2 "Claytor     " 132.00 "1 " "                                "  :  1 21.699999 12.700000 0.000000 0.000000 0.000000 0.000000   1    1   400101   391231   0 0   1 0    0       0 "            "   0.00   0
      3 "Kumis       " 132.00 "1 " "                                "  :  1 2.400000 1.200000 0.000000 0.000000 0.000000 0.000000   1    1   400101   391231   0 0   1 0    0       0 "            "   0.00   0
      4 "Hancock     " 132.00 "1 " "                                "  :  1 7.600000 1.600000 0.000000 0.000000 0.000000 0.000000   1    1   400101   391231   0 0   1 0    0       0 "            "   0.00   0
      5 "Fieldale    " 132.00 "1 " "                                "  :  1 94.199997 19.000000 0.000000 0.000000 0.000000 0.000000   1    1   400101   391231   0 0   1 0    0       0 "            "   0.00   0
      7 "Blaine      " 132.00 "1 " "                                "  :  1 22.800000 10.900000 0.000000 0.000000 0.000000 0.000000   1    1   400101   391231   0 0   1 0    0       0 "            "   0.00   0
      8 "Reusens     " 132.00 "1 " "                                "  :  1 30.000001 30.000001 0.000000 0.000000 0.000000 0.000000   1    1   400101   391231   0 0   1 0    0       0 "            "   0.00   0
     10 "Roanoke     "  33.00 "1 " "                                "  :  1 5.800000 2.000000 0.000000 0.000000 0.000000 0.000000   1    1   400101   391231   0 0   1 0    0       0 "            "   0.00   0
     12 "Hancock     "  33.00 "1 " "                                "  :  1 11.200000 7.500000 0.000000 0.000000 0.000000 0.000000   1    1   400101   391231   0 0   1 0    0       0 "            "   0.00   0
     14 "Bus 14      "  33.00 "1 " "                                "  :  1 6.200000 1.600000 0.000000 0.000000 0.000000 0.000000   1    1   400101   391231   0 0   1 0    0       0 "            "   0.00   0
     15 "Bus 15      "  33.00 "1 " "                                "  :  1 8.200000 2.500000 0.000000 0.000000 0.000000 0.000000   1    1   400101   391231   0 0   1 0    0       0 "            "   0.00   0
     16 "Bus 16      "  33.00 "1 " "                                "  :  1 3.500000 1.800000 0.000000 0.000000 0.000000 0.000000   1    1   400101   391231   0 0   1 0    0       0 "            "   0.00   0
     17 "Bus 17      "  33.00 "1 " "                                "  :  1 9.000000 5.800000 0.000000 0.000000 0.000000 0.000000   1    1   400101   391231   0 0   1 0    0       0 "            "   0.00   0
     18 "Bus 18      "  33.00 "1 " "                                "  :  1 3.200000 0.900000 0.000000 0.000000 0.000000 0.000000   1    1   400101   391231   0 0   1 0    0       0 "            "   0.00   0
     19 "Bus 19      "  33.00 "1 " "                                "  :  1 9.500000 3.400000 0.000000 0.000000 0.000000 0.000000   1    1   400101   391231   0 0   1 0    0       0 "            "   0.00   0
     20 "Bus 20      "  33.00 "1 " "                                "  :  1 2.200000 0.700000 0.000000 0.000000 0.000000 0.000000   1    1   400101   391231   0 0   1 0    0       0 "            "   0.00   0
     21 "Bus 21      "  33.00 "1 " "                                "  :  1 17.500000 11.200000 0.000000 0.000000 0.000000 0.000000   1    1   400101   391231   0 0   1 0    0       0 "            "   0.00   0
     23 "Bus 23      "  33.00 "1 " "                                "  :  1 3.200000 1.600000 0.000000 0.000000 0.000000 0.000000   1    1   400101   391231   0 0   1 0    0       0 "            "   0.00   0
     24 "Bus 24      "  33.00 "1 " "                                "  :  1 8.700000 6.700000 0.000000 0.000000 0.000000 0.000000   1    1   400101   391231   0 0   1 0    0       0 "            "   0.00   0
     26 "Bus 26      "  33.00 "1 " "                                "  :  1 3.500000 2.300000 0.000000 0.000000 0.000000 0.000000   1    1   400101   391231   0 0   1 0    0       0 "            "   0.00   0
     29 "Bus 29      "  33.00 "1 " "                                "  :  1 2.400000 0.900000 0.000000 0.000000 0.000000 0.000000   1    1   400101   391231   0 0   1 0    0       0 "            "   0.00   0
     30 "Bus 30      "  33.00 "1 " "                                "  :  1 10.600000 1.900000 0.000000 0.000000 0.000000 0.000000   1    1   400101   391231   0 0   1 0    0       0 "            "   0.00   0
shunt data  [   2]             id                                 ck  se  ------------long_id_------------     st ar  zone    pu_mw  pu_mvar  date_in date_out pid N own part1 own part2 own part3 own part4 --num-- ----name----  --kv-- M --num--  ----name----  --kv--  ID  st
     10 "Roanoke     "  33.00 "b "       0 "            "   0.00 "  "  0 "                                "  :  1   1    1 0.000000 0.190000   400101   391231   0 0   1 1.000   0 0.000   0 0.000   0 0.000      -1 "            "   0.00 "  "  0 0
     24 "Bus 24      "  33.00 "b "       0 "            "   0.00 "  "  0 "                                "  :  1   1    1 0.000000 0.043000   400101   391231   0 0   1 1.000   0 0.000   0 0.000   0 0.000      -1 "            "   0.00 "  "  0 0
svd data  [   0]               id   ------------long_id_------------    st ty --no---     reg_name           ar zone      g      b  min_c  max_c  vband   bmin   bmax  date_in date_out pid N own part1 own part2 own part3 own part4 M st
area data  [  1]                            swing  desired    tol      pnet     qnet
    1 "1                               "       0    0.000    1.000   -0.003   -0.000 0
zone data  [   1]                            pnet     qnet
    1 "IEEE 30                         "   -0.003   -0.000 0
interface data  [   0]                      pnet     qnet   -rate1- -rate2- -rate3- -rate4- -rate5- -rate6- -rate7- -rate8-
interface branch data  [    0]                              ck      -i_no-  part_fac  
dc bus data  [ 0]             ty ar  zone   vsched     dc_volt  date_in date_out pid own
dc converter data  [ 0]                               id   long_id_    st ty md nb fg  --no---           reg   ar zone  date_in date_out
z table data  [ 0]  -tap2 fact2 -tap3 fact3 -tap4 fact4 -tap5 fact5 -tap6 fact6 -tap7 fact7 -tap8 fact8 -tap9 fact9 tap10 fac10 tap11 fac11
gcd data  [   0]
transaction data  [    0]              st    sch_mw   sch_mvar  flag stn pid         transaction name
owner data  [    1]    owner name           s name       net_mw   net_mvar     sch_mw   sch_mvar  ar
       1 "1                               " "    " :     0.000      0.000      0.000      0.000   0 0 


qtable data     [   0]   id     p[0]   qmx[0]  qmn[0]  ....
end
